<?xml version="1.0" encoding="UTF-8"?>

<!-- generated on 2025-11-07 14:20:04 by Eclipse SUMO netedit Version 1.24.0 -->

<routes xmlns:xsi="http://www.w3.org/2001/XMLSchema-instance" xsi:noNamespaceSchemaLocation="http://sumo.dlr.de/xsd/routes_file.xsd">
    <!-- VTypes -->
    <vType id="customType" accel="5" decel="5" sigma="0" length="5" maxSpeed="70" lcOvertakeRight="0" lcKeepRight="0" lcSpeedGainRight="0"/>
    <vType id="egoType" length="5.00" maxSpeed="70.00" lcStrategic="1.0" lcCooperative="1.0" lcSpeedGain="1.0" accel="5" decel="5" sigma="0"/>

    <!-- Routes -->
    <route id="route0" edges="68.0.00 -37.0.00 -38.0.00"/>

    <!-- Vehicles, persons and containers (sorted by depart) -->
    <flow id="f_0" type="customType" begin="0.00" departLane="2" from="-35.0.00" to="-38.0.00" probability="0.2"/>
    <flow id="f_1" type="customType" begin="0.00" departLane="3" from="-35.0.00" to="-38.0.00" probability="0.5"/>
    <flow id="f_2" type="customType" begin="0.00" departLane="4" from="-35.0.00" to="-38.0.00" probability="0.5"/>
    <flow id="f_3" type="customType" begin="0.50" departLane="5" from="-35.0.00" to="-38.0.00" probability="0.5"/>
    <flow id="f_4" type="customType" begin="0.50" departLane="5" from="-35.0.00" to="-38.0.00" probability="0.5"/>

    <!-- Ego Vehicles -->
    <vehicle id="ego1" type="egoType" route="route0" depart="20.00" departLane="2" departSpeed="max" color="red"/>
</routes>
